/*--------------------------------*- C++ -*----------------------------------*\
| =========                 |                                                 |
| \\      /  F ield         | OpenFOAM: The Open Source CFD Toolbox           |
|  \\    /   O peration     | Version:  v1906                                 |
|   \\  /    A nd           | Web:      www.OpenFOAM.com                      |
|    \\/     M anipulation  |                                                 |
\*---------------------------------------------------------------------------*/
FoamFile
{
    version     2.0;
    format      ascii;
    class       polyBoundaryMesh;
    location    "constant/polyMesh";
    object      boundary;
}
// * * * * * * * * * * * * * * * * * * * * * * * * * * * * * * * * * * * * * //

6
(
    back
    {
        type            patch;
        physicalType    patch;
        nFaces          2401;
        startFace       4704;
    }
    out
    {
        type            patch;
        physicalType    patch;
        nFaces          49;
        startFace       7105;
    }
    bottom
    {
        type            patch;
        physicalType    patch;
        nFaces          49;
        startFace       7154;
    }
    in
    {
        type            patch;
        physicalType    patch;
        nFaces          49;
        startFace       7203;
    }
    top
    {
        type            patch;
        physicalType    patch;
        nFaces          49;
        startFace       7252;
    }
    front
    {
        type            patch;
        physicalType    patch;
        nFaces          2401;
        startFace       7301;
    }
)

// ************************************************************************* //
