/*--------------------------------*- C++ -*----------------------------------*\
| =========                 |                                                 |
| \\      /  F ield         | OpenFOAM: The Open Source CFD Toolbox           |
|  \\    /   O peration     | Version:  v1906                                 |
|   \\  /    A nd           | Web:      www.OpenFOAM.com                      |
|    \\/     M anipulation  |                                                 |
\*---------------------------------------------------------------------------*/
FoamFile
{
    version     2.0;
    format      ascii;
    class       dictionary;
    object      controlDict;
}
// * * * * * * * * * * * * * * * * * * * * * * * * * * * * * * * * * * * * * //

application     icoOversetFoam;

startFrom       startTime;

startTime       0;

stopAt          endTime;

endTime         10;

deltaT          0.0005;

writeControl    adjustableRunTime;

writeInterval   0.5;

purgeWrite      0;

writeFormat     ascii;

writePrecision   8;

writeCompression off;

timeFormat      general;

timePrecision   6;

runTimeModifiable true;

libs
(
    "libfoam.so"
    "libmeshTools.so"
    "libsurfMesh.so"
    "libsampling.so"
    "libdynamicMesh.so"
    "liboversetMesh.so"
    "liblduSolvers.so"
    "libforces.so"
);

//write control


functionObjects
(
forcesIncompressible
{
type forcesIncompressible;
functionObjectLibs ("libforces.so"); //Lib to load
patches (wall); // change to your patch name
rhoInf 1.225; //Reference density for fluid
CofR (0 0 0); //Origin for moment calculations
}

functions
{
forceCoeffsIncompressible
{

type forceCoeffsIncompressible;
functionObjectLibs ( "libforces.so" );
outputControl timeStep;
outputInterval 1;
writeFields     yes;
patches
(
wall
);
pName p;
UName U;
rhoName rhoInf;
log true;
rhoInf 1;
CofR ( 0 0 0 );
liftDir (0 1 0);
dragDir ( 1 0 0 );
pitchAxis ( 0 0 0 );
magUInf 1;
lRef 1;
Aref 1;
}
}
);


// ************************************************************************* //
