/*--------------------------------*- C++ -*----------------------------------*\
| =========                 |                                                 |
| \\      /  F ield         | OpenFOAM: The Open Source CFD Toolbox           |
|  \\    /   O peration     | Version:  v1906                                 |
|   \\  /    A nd           | Web:      www.OpenFOAM.com                      |
|    \\/     M anipulation  |                                                 |
\*---------------------------------------------------------------------------*/
FoamFile
{
    version     2.0;
    format      ascii;
    class       polyBoundaryMesh;
    location    "constant/polyMesh";
    object      boundary;
}
// * * * * * * * * * * * * * * * * * * * * * * * * * * * * * * * * * * * * * //

5
(
    back
    {
        type            patch;
        physicalType    patch;
        nFaces          1992;
        startFace       3734;
    }
    wall
    {
        type            patch;
        physicalType    patch;
        nFaces          102;
        startFace       5726;
    }
    cylinder
    {
        type            patch;
        physicalType    patch;
        nFaces          156;
        startFace       5828;
    }
    front
    {
        type            patch;
        physicalType    patch;
        nFaces          1992;
        startFace       5984;
    }
    defaultFaces
    {
        type            patch;
        nFaces          1;
        startFace       7976;
    }
)

// ************************************************************************* //
