/*--------------------------------*- C++ -*----------------------------------*\
| =========                 |                                                 |
| \\      /  F ield         | OpenFOAM: The Open Source CFD Toolbox           |
|  \\    /   O peration     | Version:  v1906                                 |
|   \\  /    A nd           | Web:      www.OpenFOAM.com                      |
|    \\/     M anipulation  |                                                 |
\*---------------------------------------------------------------------------*/
FoamFile
{
    version     2.0;
    format      ascii;
    class       polyBoundaryMesh;
    location    "constant/polyMesh";
    object      boundary;
}
// * * * * * * * * * * * * * * * * * * * * * * * * * * * * * * * * * * * * * //

3
(
    sides
    {
        type            wall;
        inGroups        1(wall);
        nFaces          1500;
        startFace       1425;
    }
    originalPatch
    {
        type            patch;
        nFaces          75;
        startFace       2925;
    }
    otherSide
    {
        type            patch;
        nFaces          75;
        startFace       3000;
    }
)

// ************************************************************************* //
